D1
  DSViewer          3D                             0

 37 40  0  0  0  0  0  0  0  0999 V2000
   42.1855   37.3174   41.0170 C   0  0
   42.7099   38.5369   40.3325 O   0  0
   44.1412   38.5519   40.7035 C   0  0  1  0  0  0
   44.5330   39.6269   41.6416 O   0  0
   45.4526   38.9626   42.6145 C   0  0
   45.7063   37.5751   42.0226 C   0  0
   44.3141   37.3129   41.5071 C   0  0  1  0  0  0
   42.9829   37.2572   42.3409 C   0  0  1  0  0  0
   42.6059   38.3953   43.1878 O   0  0
   42.8151   38.0883   44.5668 C   0  0
   43.2324   36.9703   44.8903 O   0  0
   42.5083   39.0212   45.5794 N   0  0
   42.6435   38.6156   46.9562 C   0  0  1  0  0  0
   43.9342   39.2901   47.5813 C   0  0
   45.1901   38.8761   46.9078 C   0  0
   45.6531   37.4978   47.0271 C   0  0
   46.8016   37.1320   46.4651 C   0  0
   47.5986   38.1131   45.7278 C   0  0
   47.1742   39.3707   45.6219 C   0  0
   45.9123   39.7709   46.2408 C   0  0
   41.3338   39.0373   47.7782 C   0  0  2  0  0  0
   41.1708   40.4691   47.8051 O   0  0
   41.4754   38.4440   49.2349 C   0  0
   41.6222   36.9298   49.1773 N   0  0
   40.2814   36.1747   49.2725 C   0  0
   39.2109   36.3708   48.1610 C   0  0
   39.7362   35.8719   46.8021 C   0  0
   37.9696   35.5517   48.5315 C   0  0
   42.6085   36.3600   50.4989 S   0  0
   43.9388   37.0839   50.4171 O   0  0
   42.8121   34.8702   50.3033 O   0  0
   41.9093   36.6190   52.0950 C   0  0
   41.1483   35.5432   52.7283 C   0  0
   40.6558   35.7076   53.9522 C   0  0
   40.8750   36.9672   54.6635 C   0  0
   41.5666   37.9482   54.0850 C   0  0
   42.1115   37.7644   52.7405 C   0  0
  1  2  1  0  0  0
  1  8  1  0  0  0
  2  3  1  0  0  0
  3  4  1  0  0  0
  3  7  1  0  0  0
  4  5  1  0  0  0
  5  6  1  0  0  0
  6  7  1  0  0  0
  7  8  1  0  0  0
  8  9  1  0  0  0
  9 10  1  0  0  0
 10 11  2  0  0  0
 10 12  1  0  0  0
 12 13  1  0  0  0
 13 14  1  0  0  0
 13 21  1  0  0  0
 14 15  1  0  0  0
 15 20  2  0  0  0
 15 16  1  0  0  0
 16 17  2  0  0  0
 17 18  1  0  0  0
 18 19  2  0  0  0
 19 20  1  0  0  0
 21 23  1  0  0  0
 21 22  1  0  0  0
 23 24  1  0  0  0
 24 25  1  0  0  0
 24 29  1  0  0  0
 25 26  1  0  0  0
 26 27  1  0  0  0
 26 28  1  0  0  0
 29 30  2  0  0  0
 29 31  2  0  0  0
 29 32  1  0  0  0
 32 33  1  0  0  0
 32 37  2  0  0  0
 33 34  2  0  0  0
 34 35  1  0  0  0
 35 36  2  0  0  0
 36 37  1  0  0  0
M  END
> <Clean Energy>
120.362

$$$$
D2
  DSViewer          3D                             0

 39 42  0  0  0  0  0  0  0  0999 V2000
   42.1856   37.3160   41.0192 C   0  0
   42.7098   38.5352   40.3341 O   0  0
   44.1406   38.5515   40.7067 C   0  0  1  0  0  0
   44.5309   39.6274   41.6444 O   0  0
   45.4493   38.9641   42.6192 C   0  0
   45.7049   37.5767   42.0282 C   0  0
   44.3135   37.3134   41.5114 C   0  0  1  0  0  0
   42.9814   37.2578   42.3442 C   0  0  1  0  0  0
   42.6021   38.3970   43.1895 O   0  0
   42.8069   38.0919   44.5700 C   0  0
   43.2237   36.9744   44.8963 O   0  0
   42.4955   39.0262   45.5812 N   0  0
   42.6258   38.6225   46.9598 C   0  0  1  0  0  0
   43.9173   39.2944   47.5865 C   0  0
   45.1747   38.8777   46.9153 C   0  0
   45.6364   37.4988   47.0380 C   0  0
   46.7859   37.1315   46.4779 C   0  0
   47.5844   38.1107   45.7402 C   0  0
   47.1610   39.3687   45.6314 C   0  0
   45.8982   39.7703   46.2481 C   0  0
   41.3143   39.0495   47.7804 C   0  0  2  0  0  0
   41.1555   40.4817   47.8047 O   0  0
   41.4520   38.4571   49.2390 C   0  0
   41.5956   36.9445   49.1751 N   0  0
   40.2591   36.1872   49.2806 C   0  0
   39.1849   36.3857   48.1727 C   0  0
   39.7100   35.8887   46.8121 C   0  0
   37.9442   35.5651   48.5409 C   0  0
   42.6122   36.3642   50.4645 S   0  0
   43.9369   37.0950   50.3589 O   0  0
   42.8199   34.8801   50.2337 O   0  0
   41.9744   36.5742   52.0941 C   0  0
   41.2405   35.4771   52.7210 C   0  0
   40.8256   35.5866   53.9788 C   0  0
   41.1013   36.8037   54.7335 C   0  0
   41.7566   37.8127   54.1597 C   0  0
   42.2177   37.6907   52.7757 C   0  0
   40.6608   36.9000   56.1600 C   0  0
   40.2729   38.2740   56.4853 N   0  0
  1  2  1  0  0  0
  1  8  1  0  0  0
  2  3  1  0  0  0
  3  4  1  0  0  0
  3  7  1  0  0  0
  4  5  1  0  0  0
  5  6  1  0  0  0
  6  7  1  0  0  0
  7  8  1  0  0  0
  8  9  1  0  0  0
  9 10  1  0  0  0
 10 11  2  0  0  0
 10 12  1  0  0  0
 12 13  1  0  0  0
 13 14  1  0  0  0
 13 21  1  0  0  0
 14 15  1  0  0  0
 15 20  2  0  0  0
 15 16  1  0  0  0
 16 17  2  0  0  0
 17 18  1  0  0  0
 18 19  2  0  0  0
 19 20  1  0  0  0
 21 23  1  0  0  0
 21 22  1  0  0  0
 23 24  1  0  0  0
 24 25  1  0  0  0
 24 29  1  0  0  0
 25 26  1  0  0  0
 26 27  1  0  0  0
 26 28  1  0  0  0
 29 30  2  0  0  0
 29 31  2  0  0  0
 29 32  1  0  0  0
 32 33  1  0  0  0
 32 37  2  0  0  0
 33 34  2  0  0  0
 34 35  1  0  0  0
 35 36  2  0  0  0
 35 38  1  0  0  0
 36 37  1  0  0  0
 38 39  1  0  0  0
M  END
> <Clean Energy>
132.694

$$$$
D3
  DSViewer          3D                             0

 40 43  0  0  0  0  0  0  0  0999 V2000
   42.1855   37.3152   41.0201 C   0  0
   42.7093   38.5342   40.3343 O   0  0
   44.1404   38.5505   40.7056 C   0  0  1  0  0  0
   44.5316   39.6268   41.6426 O   0  0
   45.4511   38.9638   42.6165 C   0  0
   45.7058   37.5761   42.0260 C   0  0
   44.3139   37.3127   41.5106 C   0  0  1  0  0  0
   42.9826   37.2573   42.3444 C   0  0  1  0  0  0
   42.6042   38.3965   43.1897 O   0  0
   42.8122   38.0919   44.5698 C   0  0
   43.2300   36.9748   44.8955 O   0  0
   42.5032   39.0265   45.5810 N   0  0
   42.6373   38.6235   46.9591 C   0  0  1  0  0  0
   43.9287   39.2982   47.5830 C   0  0
   45.1847   38.8815   46.9106 C   0  0
   45.6467   37.5029   47.0324 C   0  0
   46.7949   37.1350   46.4716 C   0  0
   47.5933   38.1140   45.7329 C   0  0
   47.1702   39.3717   45.6246 C   0  0
   45.9084   39.7745   46.2421 C   0  0
   41.3269   39.0474   47.7815 C   0  0  2  0  0  0
   41.1644   40.4791   47.8064 O   0  0
   41.4694   38.4549   49.2392 C   0  0
   41.6175   36.9419   49.1755 N   0  0
   40.2812   36.1828   49.2797 C   0  0
   39.2051   36.3789   48.1741 C   0  0
   39.7271   35.8829   46.8125 C   0  0
   37.9671   35.5562   48.5470 C   0  0
   42.6251   36.3654   50.4749 S   0  0
   43.9478   37.1018   50.3833 O   0  0
   42.8401   34.8811   50.2519 O   0  0
   41.9593   36.5837   52.0902 C   0  0
   41.2338   35.4893   52.7145 C   0  0
   40.7826   35.6124   53.9573 C   0  0
   41.0093   36.8463   54.7093 C   0  0
   40.5169   36.9057   56.0354 N   0  0
   41.6725   37.8627   54.1323 C   0  0
   42.1688   37.7133   52.7567 C   0  0
   41.9365   39.1518   54.8747 C   0  0
   42.7492   40.0916   54.0866 N   0  0
  1  2  1  0  0  0
  1  8  1  0  0  0
  2  3  1  0  0  0
  3  4  1  0  0  0
  3  7  1  0  0  0
  4  5  1  0  0  0
  5  6  1  0  0  0
  6  7  1  0  0  0
  7  8  1  0  0  0
  8  9  1  0  0  0
  9 10  1  0  0  0
 10 11  2  0  0  0
 10 12  1  0  0  0
 12 13  1  0  0  0
 13 14  1  0  0  0
 13 21  1  0  0  0
 14 15  1  0  0  0
 15 20  2  0  0  0
 15 16  1  0  0  0
 16 17  2  0  0  0
 17 18  1  0  0  0
 18 19  2  0  0  0
 19 20  1  0  0  0
 21 23  1  0  0  0
 21 22  1  0  0  0
 23 24  1  0  0  0
 24 25  1  0  0  0
 24 29  1  0  0  0
 25 26  1  0  0  0
 26 27  1  0  0  0
 26 28  1  0  0  0
 29 30  2  0  0  0
 29 31  2  0  0  0
 29 32  1  0  0  0
 32 33  1  0  0  0
 32 38  2  0  0  0
 33 34  2  0  0  0
 34 35  1  0  0  0
 35 36  1  0  0  0
 35 37  2  0  0  0
 37 38  1  0  0  0
 37 39  1  0  0  0
 39 40  1  0  0  0
M  END
> <Clean Energy>
132.995

$$$$
