A1
  DSViewer          3D                             0

 41 44  0  0  0  0  0  0  0  0999 V2000
   42.2827   37.1896   40.9922 C   0  0
   42.7760   38.4016   40.2725 O   0  0
   44.2052   38.4649   40.6443 C   0  0  1  0  0  0
   44.5659   39.5797   41.5459 O   0  0
   45.4939   38.9710   42.5439 C   0  0
   45.7906   37.5717   41.9985 C   0  0
   44.4089   37.2550   41.4858 C   0  0  1  0  0  0
   43.0804   37.1865   42.3192 C   0  0  1  0  0  0
   42.6802   38.3350   43.1384 O   0  0
   42.8832   38.0555   44.5285 C   0  0
   43.3046   36.9473   44.8792 O   0  0
   42.5474   38.9997   45.5176 N   0  0
   42.6425   38.6163   46.9046 C   0  0  1  0  0  0
   43.8854   39.3324   47.5818 C   0  0
   45.1952   38.9737   46.9778 C   0  0
   45.8761   37.7565   47.4070 C   0  0
   47.0810   37.4639   46.9235 C   0  0
   47.7159   38.3545   45.9559 C   0  0
   47.0929   39.4632   45.5654 C   0  0
   45.7733   39.7904   46.1038 C   0  0
   41.2897   39.0372   47.6615 C   0  0  2  0  0  0
   41.1115   40.4685   47.6432 O   0  0
   41.3619   38.4858   49.1417 C   0  0
   41.4933   36.9784   49.1096 N   0  0
   40.1367   36.2851   49.3088 C   0  0
   39.0455   36.4814   48.2217 C   0  0
   39.5228   35.8701   46.8931 C   0  0
   37.7651   35.7625   48.6628 C   0  0
   42.5680   36.3977   50.3514 S   0  0
   43.8823   37.1407   50.2091 O   0  0
   42.7789   34.9200   50.0861 O   0  0
   41.9867   36.5547   52.0031 C   0  0
   41.2786   35.4303   52.6115 C   0  0
   40.8989   35.4911   53.8826 C   0  0
   41.1873   36.6837   54.6711 C   0  0
   40.8077   36.7332   56.0070 N   0  0
   41.8210   37.7167   54.1160 C   0  0
   42.2448   37.6477   52.7153 C   0  0
   47.7767   36.2622   47.3680 C   0  0
   49.0453   35.9750   46.8765 O   0  0
   47.2469   35.5086   48.1918 O   0  0
  1  2  1  0  0  0
  1  8  1  0  0  0
  2  3  1  0  0  0
  3  4  1  0  0  0
  3  7  1  0  0  0
  4  5  1  0  0  0
  5  6  1  0  0  0
  6  7  1  0  0  0
  7  8  1  0  0  0
  8  9  1  0  0  0
  9 10  1  0  0  0
 10 11  2  0  0  0
 10 12  1  0  0  0
 12 13  1  0  0  0
 13 14  1  0  0  0
 13 21  1  0  0  0
 14 15  1  0  0  0
 15 20  2  0  0  0
 15 16  1  0  0  0
 16 17  2  0  0  0
 17 18  1  0  0  0
 17 39  1  0  0  0
 18 19  2  0  0  0
 19 20  1  0  0  0
 21 23  1  0  0  0
 21 22  1  0  0  0
 23 24  1  0  0  0
 24 25  1  0  0  0
 24 29  1  0  0  0
 25 26  1  0  0  0
 26 27  1  0  0  0
 26 28  1  0  0  0
 29 30  2  0  0  0
 29 31  2  0  0  0
 29 32  1  0  0  0
 32 33  1  0  0  0
 32 38  2  0  0  0
 33 34  2  0  0  0
 34 35  1  0  0  0
 35 36  1  0  0  0
 35 37  2  0  0  0
 37 38  1  0  0  0
 39 40  1  0  0  0
 39 41  2  0  0  0
M  END
> <Clean Energy>
124.11

$$$$
A2
  DSViewer          3D                             0

 44 48  0  0  0  0  0  0  0  0999 V2000
   42.2449   37.3486   40.9994 C   0  0
   42.8029   38.5701   40.3453 O   0  0
   44.2232   38.5662   40.7604 C   0  0  1  0  0  0
   44.5991   39.6261   41.7254 O   0  0
   45.4887   38.9409   42.7162 C   0  0
   45.7412   37.5583   42.1136 C   0  0
   44.3592   37.3171   41.5542 C   0  0  1  0  0  0
   43.0003   37.2676   42.3449 C   0  0  1  0  0  0
   42.6070   38.4020   43.1870 O   0  0
   42.7849   38.0901   44.5648 C   0  0
   43.1956   36.9705   44.8914 O   0  0
   42.4718   39.0233   45.5730 N   0  0
   42.6047   38.6198   46.9476 C   0  0  1  0  0  0
   43.8916   39.3008   47.5685 C   0  0
   45.1621   38.9046   46.9073 C   0  0
   45.5675   37.5098   46.8781 C   0  0
   46.7341   37.1674   46.3428 C   0  0
   47.6311   38.1996   45.7759 C   0  0
   47.2335   39.4804   45.8056 C   0  0
   45.9501   39.8398   46.3960 C   0  0
   41.2961   39.0388   47.7740 C   0  0  2  0  0  0
   41.1288   40.4703   47.8010 O   0  0
   41.4449   38.4453   49.2312 C   0  0
   41.5976   36.9328   49.1672 N   0  0
   40.2627   36.1717   49.2735 C   0  0
   39.1849   36.3667   48.1693 C   0  0
   39.7058   35.8713   46.8069 C   0  0
   37.9480   35.5438   48.5435 C   0  0
   42.6084   36.3597   50.4666 S   0  0
   43.9312   37.0954   50.3707 O   0  0
   42.8223   34.8746   50.2478 O   0  0
   41.9435   36.5844   52.0820 C   0  0
   41.2039   35.4908   52.7097 C   0  0
   40.7514   35.6209   53.9527 C   0  0
   40.9927   36.8583   54.6892 C   0  0
   40.5327   36.9854   55.9948 N   0  0
   41.6583   37.8594   54.1158 C   0  0
   42.1605   37.7145   52.7495 C   0  0
   48.9697   37.8077   45.1927 C   0  0
   49.8182   38.7131   44.7025 C   0  0
   49.3852   36.3982   45.1615 C   0  0
   51.1081   38.2853   44.1623 C   0  0
   50.5727   36.0691   44.6571 C   0  0
   51.4325   37.0542   44.1542 N   0  0
  1  2  1  0  0  0
  1  8  1  0  0  0
  2  3  1  0  0  0
  3  4  1  0  0  0
  3  7  1  0  0  0
  4  5  1  0  0  0
  5  6  1  0  0  0
  6  7  1  0  0  0
  7  8  1  0  0  0
  8  9  1  0  0  0
  9 10  1  0  0  0
 10 11  2  0  0  0
 10 12  1  0  0  0
 12 13  1  0  0  0
 13 14  1  0  0  0
 13 21  1  0  0  0
 14 15  1  0  0  0
 15 20  2  0  0  0
 15 16  1  0  0  0
 16 17  2  0  0  0
 17 18  1  0  0  0
 18 19  2  0  0  0
 18 39  1  0  0  0
 19 20  1  0  0  0
 21 23  1  0  0  0
 21 22  1  0  0  0
 23 24  1  0  0  0
 24 25  1  0  0  0
 24 29  1  0  0  0
 25 26  1  0  0  0
 26 27  1  0  0  0
 26 28  1  0  0  0
 29 30  2  0  0  0
 29 31  2  0  0  0
 29 32  1  0  0  0
 32 33  1  0  0  0
 32 38  2  0  0  0
 33 34  2  0  0  0
 34 35  1  0  0  0
 35 36  1  0  0  0
 35 37  2  0  0  0
 37 38  1  0  0  0
 39 40  2  0  0  0
 39 41  1  0  0  0
 40 42  1  0  0  0
 41 43  2  0  0  0
 42 44  2  0  0  0
 43 44  1  0  0  0
M  END
> <Clean Energy>
118.787

$$$$
A3
  DSViewer          3D                             0

 45 49  0  0  0  0  0  0  0  0999 V2000
   42.1918   37.4967   40.9937 C   0  0
   42.7863   38.7035   40.3448 O   0  0
   44.2152   38.6284   40.7200 C   0  0  1  0  0  0
   44.6631   39.6537   41.6887 O   0  0
   45.5484   38.9141   42.6409 C   0  0
   45.7211   37.5314   42.0135 C   0  0
   44.3157   37.3610   41.4906 C   0  0  1  0  0  0
   42.9782   37.3576   42.3178 C   0  0  1  0  0  0
   42.6574   38.4905   43.1918 O   0  0
   42.8729   38.1471   44.5576 C   0  0
   43.2575   37.0089   44.8502 O   0  0
   42.6237   39.0700   45.5913 N   0  0
   42.7878   38.6371   46.9525 C   0  0  1  0  0  0
   44.0765   39.3149   47.5629 C   0  0
   45.3304   38.9476   46.8557 C   0  0
   45.7843   37.5568   46.8328 C   0  0
   46.9402   37.2493   46.2514 C   0  0
   47.7469   38.2996   45.6399 C   0  0
   47.3265   39.5593   45.6543 C   0  0
   46.0647   39.8996   46.2910 C   0  0
   41.4901   39.0287   47.8055 C   0  0  2  0  0  0
   41.3136   40.4585   47.8590 O   0  0
   41.6573   38.4193   49.2525 C   0  0
   41.8181   36.9042   49.1977 N   0  0
   40.4874   36.1240   49.2412 C   0  0
   39.4557   36.2938   48.0894 C   0  0
   40.0435   35.8081   46.7517 C   0  0
   38.2217   35.4458   48.4132 C   0  0
   42.7515   36.3525   50.5643 S   0  0
   44.0802   37.0829   50.5298 O   0  0
   42.9703   34.8616   50.3952 O   0  0
   41.9866   36.6291   52.1296 C   0  0
   41.2069   35.5581   52.7491 C   0  0
   40.6709   35.7363   53.9527 C   0  0
   40.8612   37.0033   54.6542 C   0  0
   40.3111   37.1833   55.9181 N   0  0
   41.5652   37.9818   54.0885 C   0  0
   42.1583   37.7845   52.7670 C   0  0
   49.0149   37.9860   45.0199 C   0  0
   49.7347   38.9675   44.4635 C   0  0
   48.1417   40.5912   45.0371 C   0  0
   49.2509   40.2927   44.4893 N   0  0
   51.0866   38.7178   43.8136 C   0  0
   52.1458   38.7265   44.9230 C   0  0
   51.1729   37.3461   43.1061 C   0  0
  1  2  1  0  0  0
  1  8  1  0  0  0
  2  3  1  0  0  0
  3  4  1  0  0  0
  3  7  1  0  0  0
  4  5  1  0  0  0
  5  6  1  0  0  0
  6  7  1  0  0  0
  7  8  1  0  0  0
  8  9  1  0  0  0
  9 10  1  0  0  0
 10 11  2  0  0  0
 10 12  1  0  0  0
 12 13  1  0  0  0
 13 14  1  0  0  0
 13 21  1  0  0  0
 14 15  1  0  0  0
 15 20  2  0  0  0
 15 16  1  0  0  0
 16 17  2  0  0  0
 17 18  1  0  0  0
 18 19  2  0  0  0
 18 39  1  0  0  0
 19 20  1  0  0  0
 19 41  1  0  0  0
 21 23  1  0  0  0
 21 22  1  0  0  0
 23 24  1  0  0  0
 24 25  1  0  0  0
 24 29  1  0  0  0
 25 26  1  0  0  0
 26 27  1  0  0  0
 26 28  1  0  0  0
 29 30  2  0  0  0
 29 31  2  0  0  0
 29 32  1  0  0  0
 32 33  1  0  0  0
 32 38  2  0  0  0
 33 34  2  0  0  0
 34 35  1  0  0  0
 35 36  1  0  0  0
 35 37  2  0  0  0
 37 38  1  0  0  0
 39 40  2  0  0  0
 40 42  1  0  0  0
 40 43  1  0  0  0
 41 42  2  0  0  0
 43 44  1  0  0  0
 43 45  1  0  0  0
M  END
> <Clean Energy>
125.742

$$$$
A4
  DSViewer          3D                             0

 41 45  0  0  0  0  0  0  0  0999 V2000
   42.0637   38.3437   41.1109 C   0  0
   43.2028   39.1859   40.6352 O   0  0
   44.3987   38.4159   41.0452 C   0  0  1  0  0  0
   45.1895   39.0233   42.1419 O   0  0
   45.5629   37.8735   43.0258 C   0  0
   45.1175   36.6301   42.2446 C   0  0
   43.8358   37.1830   41.6581 C   0  0  1  0  0  0
   42.5802   37.7249   42.4292 C   0  0  1  0  0  0
   42.7592   38.7662   43.4261 O   0  0
   42.7103   38.1998   44.7253 C   0  0
   42.4894   36.9913   44.8662 O   0  0
   42.9048   38.9843   45.8515 N   0  0
   42.8048   38.3658   47.1265 C   0  0  1  0  0  0
   44.0274   38.8084   48.0616 C   0  0
   45.3791   38.4376   47.4861 C   0  0
   46.3437   37.4816   48.0455 C   0  0
   47.3998   37.4527   47.2628 C   0  0
   45.9377   38.9464   46.3905 C   0  0
   41.3997   38.8128   47.7358 C   0  0  2  0  0  0
   41.3694   40.2409   47.9167 O   0  0
   41.1890   38.0912   49.0892 C   0  0
   41.1474   36.5888   48.9394 N   0  0
   39.7256   36.0392   48.9126 C   0  0
   38.8035   36.4741   47.7352 C   0  0
   39.3847   35.9996   46.3880 C   0  0
   37.4287   35.8180   47.9244 C   0  0
   42.0084   35.8022   50.2447 S   0  0
   43.4589   36.1282   50.0033 O   0  0
   41.8181   34.3028   50.1237 O   0  0
   41.6720   36.3206   51.9129 C   0  0
   41.2115   35.3335   52.8812 C   0  0
   41.0437   35.6799   54.1554 C   0  0
   41.3108   37.0533   54.5799 C   0  0
   41.1474   37.4193   55.9080 N   0  0
   41.7217   37.9544   53.6958 C   0  0
   41.9220   37.5703   52.3120 C   0  0
   47.2034   38.3444   46.2155 N   0  0
   48.5363   36.5989   47.5379 C   0  0
   48.4902   35.8228   48.6258 C   0  0
   47.2930   35.8620   49.5226 C   0  0
   46.2671   36.6684   49.2363 C   0  0
  1  2  1  0  0  0
  1  8  1  0  0  0
  2  3  1  0  0  0
  3  4  1  0  0  0
  3  7  1  0  0  0
  4  5  1  0  0  0
  5  6  1  0  0  0
  6  7  1  0  0  0
  7  8  1  0  0  0
  8  9  1  0  0  0
  9 10  1  0  0  0
 10 11  2  0  0  0
 10 12  1  0  0  0
 12 13  1  0  0  0
 13 14  1  0  0  0
 13 19  1  0  0  0
 14 15  1  0  0  0
 15 18  2  0  0  0
 15 16  1  0  0  0
 16 17  2  0  0  0
 16 41  1  0  0  0
 17 37  1  0  0  0
 17 38  1  0  0  0
 18 37  1  0  0  0
 19 21  1  0  0  0
 19 20  1  0  0  0
 21 22  1  0  0  0
 22 23  1  0  0  0
 22 27  1  0  0  0
 23 24  1  0  0  0
 24 25  1  0  0  0
 24 26  1  0  0  0
 27 28  2  0  0  0
 27 29  2  0  0  0
 27 30  1  0  0  0
 30 31  1  0  0  0
 30 36  2  0  0  0
 31 32  2  0  0  0
 32 33  1  0  0  0
 33 34  1  0  0  0
 33 35  2  0  0  0
 35 36  1  0  0  0
 38 39  2  0  0  0
 39 40  1  0  0  0
 40 41  2  0  0  0
M  END
> <Clean Energy>
151.662

$$$$
