C1
  DSViewer          3D                             0

 39 42  0  0  0  0  0  0  0  0999 V2000
   42.2301   37.1788   41.0559 C   0  0  2  0  0  0
   42.7240   38.3953   40.3207 O   0  0
   44.1794   38.5353   40.7222 C   0  0  1  0  0  0
   44.4464   39.6538   41.6565 O   0  0
   45.4401   39.1118   42.6397 C   0  0
   45.8432   37.7482   42.0814 C   0  0
   44.4966   37.3263   41.5525 C   0  0  1  0  0  0
   43.1361   37.1663   42.3589 C   0  0  1  0  0  0
   42.7038   38.3145   43.1689 O   0  0
   42.8734   38.0358   44.5658 C   0  0
   43.3047   36.9343   44.9253 O   0  0
   42.5257   38.9825   45.5551 N   0  0
   42.6450   38.6015   46.9425 C   0  0  1  0  0  0
   43.9297   39.2898   47.5699 C   0  0
   45.1946   38.8711   46.9140 C   0  0
   45.6541   37.4920   47.0409 C   0  0
   46.8081   37.1236   46.4912 C   0  0
   47.6143   38.1021   45.7607 C   0  0
   47.1935   39.3603   45.6487 C   0  0
   45.9258   39.7633   46.2540 C   0  0
   41.3264   39.0316   47.7484 C   0  0  2  0  0  0
   41.1596   40.4631   47.7561 O   0  0
   41.4592   38.4532   49.2132 C   0  0
   41.6100   36.9398   49.1608 N   0  0
   40.2733   36.1812   49.2686 C   0  0
   39.1968   36.3721   48.1619 C   0  0
   39.7174   35.8683   46.8025 C   0  0
   37.9582   35.5527   48.5397 C   0  0
   42.6172   36.3711   50.4650 S   0  0
   43.9397   37.1077   50.3716 O   0  0
   42.8332   34.8859   50.2493 O   0  0
   41.9472   36.5959   52.0782 C   0  0
   41.2072   35.5010   52.7045 C   0  0
   40.7518   35.6302   53.9456 C   0  0
   40.9890   36.8672   54.6837 C   0  0
   40.5263   36.9935   55.9880 N   0  0
   41.6548   37.8703   54.1115 C   0  0
   42.1604   37.7261   52.7464 C   0  0
   42.3425   35.9170   40.0935 C   0  0
  1  2  1  0  0  0
  1  8  1  0  0  0
  1 39  1  0  0  0
  2  3  1  0  0  0
  3  4  1  0  0  0
  3  7  1  0  0  0
  4  5  1  0  0  0
  5  6  1  0  0  0
  6  7  1  0  0  0
  7  8  1  0  0  0
  8  9  1  0  0  0
  9 10  1  0  0  0
 10 11  2  0  0  0
 10 12  1  0  0  0
 12 13  1  0  0  0
 13 14  1  0  0  0
 13 21  1  0  0  0
 14 15  1  0  0  0
 15 20  2  0  0  0
 15 16  1  0  0  0
 16 17  2  0  0  0
 17 18  1  0  0  0
 18 19  2  0  0  0
 19 20  1  0  0  0
 21 23  1  0  0  0
 21 22  1  0  0  0
 23 24  1  0  0  0
 24 25  1  0  0  0
 24 29  1  0  0  0
 25 26  1  0  0  0
 26 27  1  0  0  0
 26 28  1  0  0  0
 29 30  2  0  0  0
 29 31  2  0  0  0
 29 32  1  0  0  0
 32 33  1  0  0  0
 32 38  2  0  0  0
 33 34  2  0  0  0
 34 35  1  0  0  0
 35 36  1  0  0  0
 35 37  2  0  0  0
 37 38  1  0  0  0
M  END
> <Clean Energy>
130.239

$$$$
C2
  DSViewer          3D                             0

 42 45  0  0  0  0  0  0  0  0999 V2000
   42.1174   37.4111   40.9131 C   0  0  2  0  0  0
   42.6847   38.6611   40.3187 O   0  0
   44.1283   38.6262   40.6861 C   0  0  1  0  0  0
   44.5314   39.6426   41.6839 O   0  0
   45.4504   38.9182   42.6155 C   0  0
   45.6935   37.5682   41.9510 C   0  0
   44.3034   37.3425   41.4207 C   0  0  1  0  0  0
   42.9533   37.2561   42.2368 C   0  0  1  0  0  0
   42.5884   38.3686   43.1301 O   0  0
   42.7902   38.0368   44.5062 C   0  0
   43.1932   36.9094   44.8148 O   0  0
   42.4983   38.9723   45.5282 N   0  0
   42.6338   38.5722   46.9087 C   0  0  1  0  0  0
   43.9208   39.2550   47.5337 C   0  0
   45.1837   38.8462   46.8726 C   0  0
   45.6519   37.4705   46.9973 C   0  0
   46.8102   37.1115   46.4506 C   0  0
   47.6115   38.0975   45.7245 C   0  0
   47.1817   39.3529   45.6136 C   0  0
   45.9098   39.7453   46.2164 C   0  0
   41.3228   39.0031   47.7310 C   0  0  2  0  0  0
   41.1609   40.4357   47.7453 O   0  0
   41.4630   38.4250   49.1965 C   0  0
   41.6085   36.9129   49.1507 N   0  0
   40.2694   36.1605   49.2657 C   0  0
   39.1910   36.3514   48.1610 C   0  0
   39.7062   35.8403   46.8025 C   0  0
   37.9500   35.5393   48.5455 C   0  0
   42.6158   36.3497   50.4580 S   0  0
   43.9392   37.0842   50.3602 O   0  0
   42.8299   34.8632   50.2498 O   0  0
   41.9473   36.5829   52.0717 C   0  0
   41.2065   35.4914   52.7030 C   0  0
   40.7525   35.6256   53.9442 C   0  0
   40.9918   36.8647   54.6778 C   0  0
   40.5305   36.9957   55.9824 N   0  0
   41.6583   37.8650   54.1014 C   0  0
   42.1626   37.7153   52.7358 C   0  0
   42.2057   34.2389   38.8177 C   0  0
   41.7399   35.2252   39.8430 C   0  0
   42.4057   36.3147   39.9757 N   0  0
   40.5206   34.8779   40.6701 C   0  0
  1  2  1  0  0  0
  1  8  1  0  0  0
  1 41  1  0  0  0
  2  3  1  0  0  0
  3  4  1  0  0  0
  3  7  1  0  0  0
  4  5  1  0  0  0
  5  6  1  0  0  0
  6  7  1  0  0  0
  7  8  1  0  0  0
  8  9  1  0  0  0
  9 10  1  0  0  0
 10 11  2  0  0  0
 10 12  1  0  0  0
 12 13  1  0  0  0
 13 14  1  0  0  0
 13 21  1  0  0  0
 14 15  1  0  0  0
 15 20  2  0  0  0
 15 16  1  0  0  0
 16 17  2  0  0  0
 17 18  1  0  0  0
 18 19  2  0  0  0
 19 20  1  0  0  0
 21 23  1  0  0  0
 21 22  1  0  0  0
 23 24  1  0  0  0
 24 25  1  0  0  0
 24 29  1  0  0  0
 25 26  1  0  0  0
 26 27  1  0  0  0
 26 28  1  0  0  0
 29 30  2  0  0  0
 29 31  2  0  0  0
 29 32  1  0  0  0
 32 33  1  0  0  0
 32 38  2  0  0  0
 33 34  2  0  0  0
 34 35  1  0  0  0
 35 36  1  0  0  0
 35 37  2  0  0  0
 37 38  1  0  0  0
 39 40  1  0  0  0
 40 41  2  0  0  0
 40 42  1  0  0  0
M  END
> <Clean Energy>
151.027

$$$$
C3
  DSViewer          3D                             0

 41 44  0  0  0  0  0  0  0  0999 V2000
   42.2754   36.9156   41.1626 C   0  0  2  0  0  0
   42.6358   38.1264   40.3411 O   0  0
   44.0813   38.4280   40.6931 C   0  0  1  0  0  0
   44.2661   39.6121   41.5699 O   0  0
   45.3312   39.2120   42.5504 C   0  0
   45.8475   37.8680   42.0384 C   0  0
   44.5335   37.2986   41.5675 C   0  0  1  0  0  0
   43.2166   37.0584   42.4256 C   0  0  1  0  0  0
   42.7129   38.2100   43.1883 O   0  0
   42.8957   37.9891   44.5933 C   0  0
   43.3786   36.9226   44.9903 O   0  0
   42.5006   38.9445   45.5557 N   0  0
   42.6308   38.5943   46.9499 C   0  0  1  0  0  0
   43.9197   39.2967   47.5586 C   0  0
   45.1798   38.8708   46.8954 C   0  0
   45.6590   37.5025   47.0614 C   0  0
   46.8046   37.1276   46.4985 C   0  0
   47.5823   38.0884   45.7153 C   0  0
   47.1440   39.3369   45.5683 C   0  0
   45.8854   39.7469   46.1876 C   0  0
   41.3159   39.0303   47.7545 C   0  0  2  0  0  0
   41.1444   40.4612   47.7465 O   0  0
   41.4581   38.4634   49.2211 C   0  0
   41.6109   36.9479   49.1717 N   0  0
   40.2751   36.1840   49.2796 C   0  0
   39.1963   36.3680   48.1723 C   0  0
   39.7175   35.8632   46.8130 C   0  0
   37.9609   35.5446   48.5516 C   0  0
   42.6198   36.3816   50.4747 S   0  0
   43.9403   37.1219   50.3815 O   0  0
   42.8397   34.8972   50.2577 O   0  0
   41.9486   36.6029   52.0870 C   0  0
   41.2092   35.5061   52.7110 C   0  0
   40.7525   35.6331   53.9517 C   0  0
   40.9876   36.8694   54.6916 C   0  0
   40.5236   36.9936   55.9954 N   0  0
   41.6531   37.8741   54.1214 C   0  0
   42.1600   37.7322   52.7569 C   0  0
   42.4779   35.6063   40.2859 C   0  0
   41.7493   34.4234   38.3623 C   0  0
   41.5647   35.6455   39.1490 N   0  0
  1  2  1  0  0  0
  1  8  1  0  0  0
  1 39  1  0  0  0
  2  3  1  0  0  0
  3  4  1  0  0  0
  3  7  1  0  0  0
  4  5  1  0  0  0
  5  6  1  0  0  0
  6  7  1  0  0  0
  7  8  1  0  0  0
  8  9  1  0  0  0
  9 10  1  0  0  0
 10 11  2  0  0  0
 10 12  1  0  0  0
 12 13  1  0  0  0
 13 14  1  0  0  0
 13 21  1  0  0  0
 14 15  1  0  0  0
 15 20  2  0  0  0
 15 16  1  0  0  0
 16 17  2  0  0  0
 17 18  1  0  0  0
 18 19  2  0  0  0
 19 20  1  0  0  0
 21 23  1  0  0  0
 21 22  1  0  0  0
 23 24  1  0  0  0
 24 25  1  0  0  0
 24 29  1  0  0  0
 25 26  1  0  0  0
 26 27  1  0  0  0
 26 28  1  0  0  0
 29 30  2  0  0  0
 29 31  2  0  0  0
 29 32  1  0  0  0
 32 33  1  0  0  0
 32 38  2  0  0  0
 33 34  2  0  0  0
 34 35  1  0  0  0
 35 36  1  0  0  0
 35 37  2  0  0  0
 37 38  1  0  0  0
 39 41  1  0  0  0
 40 41  1  0  0  0
M  END
> <Clean Energy>
128.892

$$$$
